
  Mrv1816 11172211303D              53.53000

 30 32  0  0  0  0            999 V2000
   -2.7092    0.0752    0.3636 C   0  0  0  0  0  0  0  0  0  0  0  0
   -2.0686   -1.1891    0.2190 C   0  0  0  0  0  0  0  0  0  0  0  0
   -0.7008   -1.2747   -0.0965 C   0  0  0  0  0  0  0  0  0  0  0  0
    0.0702   -0.1110   -0.2806 C   0  0  0  0  0  0  0  0  0  0  0  0
   -0.5574    1.1439   -0.1373 C   0  0  0  0  0  0  0  0  0  0  0  0
   -1.9343    1.2578    0.1840 C   0  0  0  0  0  0  0  0  0  0  0  0
   -2.5483    2.5414    0.3270 C   0  0  0  0  0  0  0  0  0  0  0  0
   -3.9337    2.6596    0.6525 C   0  0  0  0  0  0  0  0  0  0  0  0
   -4.7234    1.4860    0.8348 C   0  0  0  0  0  0  0  0  0  0  0  0
   -4.1006    0.2010    0.6887 C   0  0  0  0  0  0  0  0  0  0  0  0
   -6.1031    1.6342    1.1594 C   0  0  0  0  0  0  0  0  0  0  0  0
   -4.5396    3.9351    0.7948 C   0  0  0  0  0  0  0  0  0  0  0  0
   -5.9008    4.0586    1.1156 C   0  0  0  0  0  0  0  0  0  0  0  0
   -6.6793    2.9084    1.3004 C   0  0  0  0  0  0  0  0  0  0  0  0
   -1.8592    3.5784    0.1636 O   0  0  0  0  0  0  0  0  0  0  0  0
   -4.7868   -0.8352    0.8591 O   0  0  0  0  0  0  0  0  0  0  0  0
   -6.9371    0.5809    1.3476 O   0  0  0  0  0  0  0  0  0  0  0  0
   -6.4679    5.2808    1.2417 O   0  0  0  0  0  0  0  0  0  0  0  0
   -2.7205   -2.3688    0.3732 O   0  0  0  0  0  0  0  0  0  0  0  0
    1.5131   -0.1815   -0.6164 C   0  0  0  0  0  0  0  0  0  0  0  0
   -0.2656   -2.1981   -0.1949 H   0  0  0  0  0  0  0  0  0  0  0  0
    0.0102    1.9877   -0.2697 H   0  0  0  0  0  0  0  0  0  0  0  0
   -3.9953    4.7919    0.6665 H   0  0  0  0  0  0  0  0  0  0  0  0
   -7.6715    3.0014    1.5326 H   0  0  0  0  0  0  0  0  0  0  0  0
   -7.0640    0.1986    0.4526 H   0  0  0  0  0  0  0  0  0  0  0  0
   -6.7476    5.5147    0.3315 H   0  0  0  0  0  0  0  0  0  0  0  0
   -3.2626   -2.4612   -0.4393 H   0  0  0  0  0  0  0  0  0  0  0  0
    2.0975    0.3193    0.1585 H   0  0  0  0  0  0  0  0  0  0  0  0
    1.8704   -1.2103   -0.6990 H   0  0  0  0  0  0  0  0  0  0  0  0
    1.6911    0.3163   -1.5714 H   0  0  0  0  0  0  0  0  0  0  0  0
  1  2  2  0  0  0  0
  2  3  1  0  0  0  0
  3  4  2  0  0  0  0
  4  5  1  0  0  0  0
  5  6  2  0  0  0  0
  7  8  1  0  0  0  0
  8  9  2  0  0  0  0
  9 10  1  0  0  0  0
  1  6  1  0  0  0  0
  1 10  1  0  0  0  0
  6  7  1  0  0  0  0
 12 13  2  0  0  0  0
 13 14  1  0  0  0  0
 11 14  2  0  0  0  0
  8 12  1  0  0  0  0
 11  9  1  0  0  0  0
  7 15  2  0  0  0  0
 10 16  2  0  0  0  0
 11 17  1  0  0  0  0
 13 18  1  0  0  0  0
  2 19  1  0  0  0  0
  4 20  1  0  0  0  0
  3 21  1  0  0  0  0
  5 22  1  0  0  0  0
 12 23  1  0  0  0  0
 14 24  1  0  0  0  0
 17 25  1  0  0  0  0
 18 26  1  0  0  0  0
 19 27  1  0  0  0  0
 20 28  1  0  0  0  0
 20 29  1  0  0  0  0
 20 30  1  0  0  0  0
M  END
$$$$
