>682.sdf
  Mrv1816 10112207533D              66.62000

 53 55  0  0  0  0            999 V2000
    3.0460   -4.7554    2.0903 C   0  0  0  0  0  0  0  0  0  0  0  0
    3.8312   -3.7563    1.4883 C   0  0  0  0  0  0  0  0  0  0  0  0
    3.4966   -2.3952    1.6375 C   0  0  0  0  0  0  0  0  0  0  0  0
    2.3472   -2.0492    2.3768 C   0  0  0  0  0  0  0  0  0  0  0  0
    1.5659   -3.0514    2.9857 C   0  0  0  0  0  0  0  0  0  0  0  0
    1.9059   -4.4195    2.8584 C   0  0  0  0  0  0  0  0  0  0  0  0
   -2.1759   -7.8516    1.4783 C   0  0  0  0  0  0  0  0  0  0  0  0
   -0.8976   -8.2659    1.9219 C   0  0  0  0  0  0  0  0  0  0  0  0
   -0.2665   -9.3433    1.2558 C   0  0  0  0  0  0  0  0  0  0  0  0
   -0.8922   -9.9808    0.1677 C   0  0  0  0  0  0  0  0  0  0  0  0
   -2.1591   -9.5524   -0.2653 C   0  0  0  0  0  0  0  0  0  0  0  0
   -2.8034   -8.4906    0.3926 C   0  0  0  0  0  0  0  0  0  0  0  0
    0.5025   -6.3904    2.5088 N   0  3  1  0  0  0  0  0  0  0  0  0
    1.1016   -5.4852    3.5176 C   0  0  1  0  0  0  0  0  0  0  0  0
   -0.2264   -7.5635    3.0447 C   0  0  1  0  0  0  0  0  0  0  0  0
    4.2817   -1.4448    1.0289 O   0  0  0  0  0  0  0  0  0  0  0  0
    5.1523   -0.6859    1.9011 C   0  0  1  0  0  0  0  0  0  0  0  0
    6.0908   -1.5210    2.7039 C   0  0  0  0  0  0  0  0  0  0  0  0
    6.1631   -1.3903    4.1074 C   0  0  0  0  0  0  0  0  0  0  0  0
    6.9829   -2.2430    4.8675 C   0  0  0  0  0  0  0  0  0  0  0  0
    7.7344   -3.2571    4.2409 C   0  0  0  0  0  0  0  0  0  0  0  0
    7.7051   -3.3742    2.8333 C   0  0  0  0  0  0  0  0  0  0  0  0
    6.8983   -2.4962    2.0766 C   0  0  0  0  0  0  0  0  0  0  0  0
    8.4991   -4.1068    4.9971 O   0  0  0  0  0  0  0  0  0  0  0  0
    8.4047   -4.3772    2.2139 O   0  0  0  0  0  0  0  0  0  0  0  0
    7.7642   -5.2457    5.4828 C   0  0  0  0  0  0  0  0  0  0  0  0
    9.6240   -3.9454    1.5860 C   0  0  0  0  0  0  0  0  0  0  0  0
    3.3152   -5.7329    1.9586 H   0  0  0  0  0  0  0  0  0  0  0  0
    4.6450   -4.0257    0.9334 H   0  0  0  0  0  0  0  0  0  0  0  0
    2.0781   -1.0672    2.4739 H   0  0  0  0  0  0  0  0  0  0  0  0
    0.7390   -2.7725    3.5198 H   0  0  0  0  0  0  0  0  0  0  0  0
   -2.6570   -7.0790    1.9444 H   0  0  0  0  0  0  0  0  0  0  0  0
    0.6559   -9.6667    1.5565 H   0  0  0  0  0  0  0  0  0  0  0  0
   -0.4251  -10.7540   -0.3105 H   0  0  0  0  0  0  0  0  0  0  0  0
   -2.6107  -10.0108   -1.0593 H   0  0  0  0  0  0  0  0  0  0  0  0
   -3.7263   -8.1823    0.0796 H   0  0  0  0  0  0  0  0  0  0  0  0
   -0.1402   -5.8384    1.9355 H   0  0  0  0  0  0  0  0  0  0  0  0
    1.2461   -6.7409    1.9005 H   0  0  0  0  0  0  0  0  0  0  0  0
    1.7488   -6.0478    4.1945 H   0  0  0  0  0  0  0  0  0  0  0  0
    0.2995   -5.0507    4.1207 H   0  0  0  0  0  0  0  0  0  0  0  0
   -0.9671   -7.2497    3.7861 H   0  0  0  0  0  0  0  0  0  0  0  0
    0.4767   -8.2344    3.5481 H   0  0  0  0  0  0  0  0  0  0  0  0
    5.7460   -0.0251    1.2672 H   0  0  0  0  0  0  0  0  0  0  0  0
    4.5426   -0.0368    2.5360 H   0  0  0  0  0  0  0  0  0  0  0  0
    5.6122   -0.6758    4.5858 H   0  0  0  0  0  0  0  0  0  0  0  0
    7.0148   -2.1359    5.8832 H   0  0  0  0  0  0  0  0  0  0  0  0
    6.8733   -2.5899    1.0587 H   0  0  0  0  0  0  0  0  0  0  0  0
    8.4531   -5.8816    6.0380 H   0  0  0  0  0  0  0  0  0  0  0  0
    6.9586   -4.9452    6.1595 H   0  0  0  0  0  0  0  0  0  0  0  0
    7.3463   -5.8331    4.6603 H   0  0  0  0  0  0  0  0  0  0  0  0
   10.0867   -4.8174    1.1248 H   0  0  0  0  0  0  0  0  0  0  0  0
    9.4343   -3.2102    0.8020 H   0  0  0  0  0  0  0  0  0  0  0  0
   10.3227   -3.5309    2.3147 H   0  0  0  0  0  0  0  0  0  0  0  0
  1  2  1  0  0  0  0
  2  3  2  0  0  0  0
  3  4  1  0  0  0  0
  4  5  2  0  0  0  0
  5  6  1  0  0  0  0
  1  6  2  0  0  0  0
  7  8  1  0  0  0  0
  8  9  2  0  0  0  0
  9 10  1  0  0  0  0
 10 11  2  0  0  0  0
 11 12  1  0  0  0  0
  7 12  2  0  0  0  0
  6 14  1  0  0  0  0
 14 13  1  0  0  0  0
 13 15  1  0  0  0  0
 15  8  1  0  0  0  0
  3 16  1  0  0  0  0
 16 17  1  0  0  0  0
 17 18  1  0  0  0  0
 19 20  1  0  0  0  0
 20 21  2  0  0  0  0
 21 22  1  0  0  0  0
 22 23  2  0  0  0  0
 23 18  1  0  0  0  0
 19 18  2  0  0  0  0
 21 24  1  0  0  0  0
 22 25  1  0  0  0  0
 24 26  1  0  0  0  0
 25 27  1  0  0  0  0
  1 28  1  0  0  0  0
  2 29  1  0  0  0  0
  4 30  1  0  0  0  0
  5 31  1  0  0  0  0
  7 32  1  0  0  0  0
  9 33  1  0  0  0  0
 10 34  1  0  0  0  0
 11 35  1  0  0  0  0
 12 36  1  0  0  0  0
 13 37  1  0  0  0  0
 13 38  1  0  0  0  0
 14 39  1  0  0  0  0
 14 40  1  0  0  0  0
 15 41  1  0  0  0  0
 15 42  1  0  0  0  0
 17 43  1  0  0  0  0
 17 44  1  0  0  0  0
 19 45  1  0  0  0  0
 20 46  1  0  0  0  0
 23 47  1  0  0  0  0
 26 48  1  0  0  0  0
 26 49  1  0  0  0  0
 26 50  1  0  0  0  0
 27 51  1  0  0  0  0
 27 52  1  0  0  0  0
 27 53  1  0  0  0  0
M  CHG  1  13   1
M  END
$$$$
