
 OpenBabel10182218293D

 35 37  0  0  1  0  0  0  0  0999 V2000
   -5.8501    1.0405   -0.2244 N   0  3  0  0  0  0  0  0  0  0  0  0
   -6.9664    0.0642   -0.1410 C   0  0  1  0  0  0  0  0  0  0  0  0
   -4.6239    0.3377    0.2018 C   0  0  2  0  0  0  0  0  0  0  0  0
   -4.8628   -1.1292   -0.2139 C   0  0  1  0  0  0  0  0  0  0  0  0
   -4.3537    0.5516    1.6912 C   0  0  0  0  0  0  0  0  0  0  0  0
   -6.3223   -1.3005    0.1921 C   0  0  2  0  0  0  0  0  0  0  0  0
   -4.6769   -1.3001   -1.6046 O   0  0  0  0  0  0  0  0  0  0  0  0
   -6.9744   -2.4058   -0.3838 O   0  0  0  0  0  0  0  0  0  0  0  0
   -8.0336    0.4423    0.9098 C   0  0  0  0  0  0  0  0  0  0  0  0
   -9.1190   -0.4406    0.8530 O   0  0  0  0  0  0  0  0  0  0  0  0
   -5.1155    1.2935    2.6053 C   0  0  0  0  0  0  0  0  0  0  0  0
   -3.2496    0.1334    2.4103 C   0  0  0  0  0  0  0  0  0  0  0  0
   -3.3682    0.6186    3.6760 C   0  0  0  0  0  0  0  0  0  0  0  0
   -4.5082    1.3164    3.8103 N   0  0  0  0  0  0  0  0  0  0  0  0
   -2.1648   -0.5783    2.0156 N   0  0  0  0  0  0  0  0  0  0  0  0
   -2.3664    0.3943    4.6113 C   0  0  0  0  0  0  0  0  0  0  0  0
   -1.2757   -0.3265    4.2124 N   0  0  0  0  0  0  0  0  0  0  0  0
   -1.1735   -0.8120    2.9318 C   0  0  0  0  0  0  0  0  0  0  0  0
   -2.4408    0.9159    5.9258 N   0  0  0  0  0  0  0  0  0  0  0  0
   -6.0229    1.9610    0.2371 H   0  0  0  0  0  0  0  0  0  0  0  0
   -5.7185    1.2829   -1.2350 H   0  0  0  0  0  0  0  0  0  0  0  0
   -7.4578    0.0436   -1.1422 H   0  0  0  0  0  0  0  0  0  0  0  0
   -3.7262    0.7469   -0.3135 H   0  0  0  0  0  0  0  0  0  0  0  0
   -4.1890   -1.8585    0.2847 H   0  0  0  0  0  0  0  0  0  0  0  0
   -6.3026   -1.4281    1.2971 H   0  0  0  0  0  0  0  0  0  0  0  0
   -5.2746   -0.6942   -2.1111 H   0  0  0  0  0  0  0  0  0  0  0  0
   -7.0431   -2.2405   -1.3615 H   0  0  0  0  0  0  0  0  0  0  0  0
   -8.3848    1.4888    0.7662 H   0  0  0  0  0  0  0  0  0  0  0  0
   -7.6149    0.3864    1.9340 H   0  0  0  0  0  0  0  0  0  0  0  0
   -9.6630   -0.1622    0.0712 H   0  0  0  0  0  0  0  0  0  0  0  0
   -6.0394    1.8143    2.4173 H   0  0  0  0  0  0  0  0  0  0  0  0
   -4.8581    1.8112    4.6591 H   0  0  0  0  0  0  0  0  0  0  0  0
   -0.2946   -1.3720    2.6427 H   0  0  0  0  0  0  0  0  0  0  0  0
   -3.2515    1.4736    6.2313 H   0  0  0  0  0  0  0  0  0  0  0  0
   -1.6675    0.7631    6.5879 H   0  0  0  0  0  0  0  0  0  0  0  0
  1  2  1  0  0  0  0
  1  3  1  0  0  0  0
  1 20  1  0  0  0  0
  1 21  1  0  0  0  0
  2  9  1  0  0  0  0
  2 22  1  6  0  0  0
  3  4  1  0  0  0  0
  3  5  1  0  0  0  0
  3 23  1  6  0  0  0
  4  6  1  0  0  0  0
  4  7  1  0  0  0  0
  4 24  1  1  0  0  0
  5 11  2  0  0  0  0
  5 12  1  0  0  0  0
  6  2  1  0  0  0  0
  6  8  1  0  0  0  0
  6 25  1  1  0  0  0
  7 26  1  0  0  0  0
  8 27  1  0  0  0  0
  9 10  1  0  0  0  0
  9 28  1  0  0  0  0
  9 29  1  0  0  0  0
 10 30  1  0  0  0  0
 11 31  1  0  0  0  0
 12 13  2  0  0  0  0
 12 15  1  0  0  0  0
 13 14  1  0  0  0  0
 13 16  1  0  0  0  0
 14 11  1  0  0  0  0
 14 32  1  0  0  0  0
 15 18  2  0  0  0  0
 16 17  2  0  0  0  0
 16 19  1  0  0  0  0
 18 17  1  0  0  0  0
 18 33  1  0  0  0  0
 19 34  1  0  0  0  0
 19 35  1  0  0  0  0
M  CHG  1   1   1
M  END
$$$$
