
 OpenBabel10182218303D

 34 36  0  0  1  0  0  0  0  0999 V2000
   -5.8647    1.0352   -0.1983 N   0  3  0  0  0  0  0  0  0  0  0  0
   -6.9694    0.0443   -0.1433 C   0  0  1  0  0  0  0  0  0  0  0  0
   -4.6327    0.3359    0.2178 C   0  0  2  0  0  0  0  0  0  0  0  0
   -4.8620   -1.1307   -0.2061 C   0  0  1  0  0  0  0  0  0  0  0  0
   -4.3582    0.5491    1.7080 C   0  0  0  0  0  0  0  0  0  0  0  0
   -6.3210   -1.3156    0.1989 C   0  0  2  0  0  0  0  0  0  0  0  0
   -4.6779   -1.2883   -1.5987 O   0  0  0  0  0  0  0  0  0  0  0  0
   -6.9654   -2.4272   -0.3763 O   0  0  0  0  0  0  0  0  0  0  0  0
   -8.0568    0.4212    0.8839 C   0  0  0  0  0  0  0  0  0  0  0  0
   -9.1203   -0.4886    0.8516 O   0  0  0  0  0  0  0  0  0  0  0  0
   -5.1198    1.2873    2.6282 C   0  0  0  0  0  0  0  0  0  0  0  0
   -3.2497    0.1326    2.4214 C   0  0  0  0  0  0  0  0  0  0  0  0
   -3.3685    0.6166    3.6884 C   0  0  0  0  0  0  0  0  0  0  0  0
   -4.5052    1.3100    3.8296 N   0  0  0  0  0  0  0  0  0  0  0  0
   -2.1684   -0.5792    2.0248 N   0  0  0  0  0  0  0  0  0  0  0  0
   -2.3704    0.3882    4.6181 C   0  0  0  0  0  0  0  0  0  0  0  0
   -1.2705   -0.3375    4.2224 N   0  0  0  0  0  0  0  0  0  0  0  0
   -1.1733   -0.8187    2.9368 C   0  0  0  0  0  0  0  0  0  0  0  0
   -2.4545    0.8288    5.7535 O   0  0  0  0  0  0  0  0  0  0  0  0
   -6.0510    1.9318    0.3016 H   0  0  0  0  0  0  0  0  0  0  0  0
   -5.7384    1.3242   -1.1969 H   0  0  0  0  0  0  0  0  0  0  0  0
   -7.4382    0.0157   -1.1549 H   0  0  0  0  0  0  0  0  0  0  0  0
   -3.7390    0.7515   -0.2994 H   0  0  0  0  0  0  0  0  0  0  0  0
   -4.1788   -1.8567    0.2846 H   0  0  0  0  0  0  0  0  0  0  0  0
   -6.3109   -1.4423    1.3039 H   0  0  0  0  0  0  0  0  0  0  0  0
   -5.2722   -0.6720   -2.0971 H   0  0  0  0  0  0  0  0  0  0  0  0
   -6.9751   -2.2995   -1.3618 H   0  0  0  0  0  0  0  0  0  0  0  0
   -8.4311    1.4526    0.7004 H   0  0  0  0  0  0  0  0  0  0  0  0
   -7.6350    0.4028    1.9080 H   0  0  0  0  0  0  0  0  0  0  0  0
   -9.5545   -0.3805   -0.0335 H   0  0  0  0  0  0  0  0  0  0  0  0
   -6.0469    1.8036    2.4489 H   0  0  0  0  0  0  0  0  0  0  0  0
   -4.8462    1.7999    4.6869 H   0  0  0  0  0  0  0  0  0  0  0  0
   -0.3009   -1.3843    2.6413 H   0  0  0  0  0  0  0  0  0  0  0  0
   -0.4975   -0.5216    4.9009 H   0  0  0  0  0  0  0  0  0  0  0  0
  1  2  1  0  0  0  0
  1  3  1  0  0  0  0
  1 20  1  0  0  0  0
  1 21  1  0  0  0  0
  2  9  1  0  0  0  0
  2 22  1  6  0  0  0
  3  4  1  0  0  0  0
  3  5  1  0  0  0  0
  3 23  1  6  0  0  0
  4  6  1  0  0  0  0
  4  7  1  0  0  0  0
  4 24  1  1  0  0  0
  5 11  2  0  0  0  0
  5 12  1  0  0  0  0
  6  2  1  0  0  0  0
  6  8  1  0  0  0  0
  6 25  1  1  0  0  0
  7 26  1  0  0  0  0
  8 27  1  0  0  0  0
  9 10  1  0  0  0  0
  9 28  1  0  0  0  0
  9 29  1  0  0  0  0
 10 30  1  0  0  0  0
 11 31  1  0  0  0  0
 12 13  2  0  0  0  0
 12 15  1  0  0  0  0
 13 14  1  0  0  0  0
 13 16  1  0  0  0  0
 14 11  1  0  0  0  0
 14 32  1  0  0  0  0
 15 18  2  0  0  0  0
 16 17  1  0  0  0  0
 16 19  2  0  0  0  0
 17 34  1  0  0  0  0
 18 17  1  0  0  0  0
 18 33  1  0  0  0  0
M  CHG  1   1   1
M  END
$$$$
