
  Mrv1816 10182218493D              95.77000

 49 53  0  0  0  0            999 V2000
   -3.8255   -1.8301    6.0260 C   0  0  0  0  0  0  0  0  0  0  0  0
   -4.5206   -1.5966    7.2343 C   0  0  0  0  0  0  0  0  0  0  0  0
   -5.3120   -0.4228    7.3160 C   0  0  0  0  0  0  0  0  0  0  0  0
   -5.3956    0.4354    6.2606 N   0  0  0  0  0  0  0  0  0  0  0  0
   -4.6995    0.1748    5.1278 C   0  0  0  0  0  0  0  0  0  0  0  0
   -3.9300   -0.9214    5.0268 N   0  0  0  0  0  0  0  0  0  0  0  0
   -4.6053    0.8836    3.9965 N   0  0  0  0  0  0  0  0  0  0  0  0
   -3.7279    0.1941    3.2410 C   0  0  0  0  0  0  0  0  0  0  0  0
   -3.3329   -0.9212    3.8860 N   0  0  0  0  0  0  0  0  0  0  0  0
   -3.2171    0.5947    1.9863 C   0  0  0  0  0  0  0  0  0  0  0  0
   -4.0242    1.1070    0.9393 C   0  0  0  0  0  0  0  0  0  0  0  0
   -3.4197    1.5413   -0.2578 C   0  0  0  0  0  0  0  0  0  0  0  0
   -2.0272    1.4520   -0.4293 C   0  0  0  0  0  0  0  0  0  0  0  0
   -1.2108    0.9017    0.5782 C   0  0  0  0  0  0  0  0  0  0  0  0
   -1.8191    0.4987    1.7886 C   0  0  0  0  0  0  0  0  0  0  0  0
   -5.7158    1.2052    1.0470 Cl  0  0  0  0  0  0  0  0  0  0  0  0
    0.1326    0.8332    0.3305 N   0  0  0  0  0  0  0  0  0  0  0  0
    1.0435   -0.0482    0.8366 C   0  0  0  0  0  0  0  0  0  0  0  0
    0.7026   -1.0098    1.5649 O   0  0  0  0  0  0  0  0  0  0  0  0
    2.4038    0.1341    0.5157 C   0  0  0  0  0  0  0  0  0  0  0  0
    3.4893   -0.7194    0.7449 C   0  0  0  0  0  0  0  0  0  0  0  0
    4.5995   -0.1085    0.3030 N   0  0  0  0  0  0  0  0  0  0  0  0
    4.2256    1.0821   -0.1900 C   0  0  0  0  0  0  0  0  0  0  0  0
    2.8885    1.2481   -0.0782 O   0  0  0  0  0  0  0  0  0  0  0  0
   -4.3919   -2.5060    8.3085 C   0  0  0  0  0  0  0  0  0  0  0  0
   -4.8268   -3.8453    8.1677 C   0  0  0  0  0  0  0  0  0  0  0  0
   -4.6474   -4.7683    9.2142 C   0  0  0  0  0  0  0  0  0  0  0  0
   -4.0288   -4.3627   10.4104 C   0  0  0  0  0  0  0  0  0  0  0  0
   -3.5939   -3.0330   10.5614 C   0  0  0  0  0  0  0  0  0  0  0  0
   -3.7791   -2.1054    9.5186 C   0  0  0  0  0  0  0  0  0  0  0  0
    5.1503    2.0701   -0.7540 C   0  0  0  0  0  0  0  0  0  0  0  0
    3.4782   -2.0657    1.3445 C   0  0  0  0  0  0  0  0  0  0  0  0
   -3.2357   -2.6578    5.9062 H   0  0  0  0  0  0  0  0  0  0  0  0
   -5.8337   -0.2057    8.1675 H   0  0  0  0  0  0  0  0  0  0  0  0
   -3.9888    1.9264   -1.0172 H   0  0  0  0  0  0  0  0  0  0  0  0
   -1.6116    1.7877   -1.3023 H   0  0  0  0  0  0  0  0  0  0  0  0
   -1.2303    0.1650    2.5548 H   0  0  0  0  0  0  0  0  0  0  0  0
    0.4767    1.4816   -0.3049 H   0  0  0  0  0  0  0  0  0  0  0  0
   -5.2746   -4.1609    7.3028 H   0  0  0  0  0  0  0  0  0  0  0  0
   -4.9631   -5.7349    9.1028 H   0  0  0  0  0  0  0  0  0  0  0  0
   -3.8953   -5.0343   11.1696 H   0  0  0  0  0  0  0  0  0  0  0  0
   -3.1362   -2.7417   11.4275 H   0  0  0  0  0  0  0  0  0  0  0  0
   -3.4466   -1.1445    9.6430 H   0  0  0  0  0  0  0  0  0  0  0  0
    5.7232    1.6246   -1.5686 H   0  0  0  0  0  0  0  0  0  0  0  0
    4.5953    2.9266   -1.1383 H   0  0  0  0  0  0  0  0  0  0  0  0
    5.8365    2.4100    0.0237 H   0  0  0  0  0  0  0  0  0  0  0  0
    3.0609   -2.0279    2.3507 H   0  0  0  0  0  0  0  0  0  0  0  0
    4.4916   -2.4637    1.4091 H   0  0  0  0  0  0  0  0  0  0  0  0
    2.8788   -2.7386    0.7298 H   0  0  0  0  0  0  0  0  0  0  0  0
  1  2  2  0  0  0  0
  2  3  1  0  0  0  0
  3  4  2  0  0  0  0
  4  5  1  0  0  0  0
  5  6  1  0  0  0  0
  1  6  1  0  0  0  0
  7  8  1  0  0  0  0
  8  9  2  0  0  0  0
  5  7  2  0  0  0  0
  6  9  1  0  0  0  0
 11 12  2  0  0  0  0
 12 13  1  0  0  0  0
 13 14  2  0  0  0  0
 14 15  1  0  0  0  0
 10 11  1  0  0  0  0
 10 15  2  0  0  0  0
  8 10  1  0  0  0  0
 11 16  1  0  0  0  0
 14 17  1  0  0  0  0
 17 18  1  0  0  0  0
 18 19  2  0  0  0  0
 21 22  1  0  0  0  0
 22 23  2  0  0  0  0
 23 24  1  0  0  0  0
 20 21  2  0  0  0  0
 20 24  1  0  0  0  0
 18 20  1  0  0  0  0
 26 27  2  0  0  0  0
 27 28  1  0  0  0  0
 28 29  2  0  0  0  0
 29 30  1  0  0  0  0
 25 26  1  0  0  0  0
 25 30  2  0  0  0  0
  2 25  1  0  0  0  0
 23 31  1  0  0  0  0
 21 32  1  0  0  0  0
  1 33  1  0  0  0  0
  3 34  1  0  0  0  0
 12 35  1  0  0  0  0
 13 36  1  0  0  0  0
 15 37  1  0  0  0  0
 17 38  1  0  0  0  0
 26 39  1  0  0  0  0
 27 40  1  0  0  0  0
 28 41  1  0  0  0  0
 29 42  1  0  0  0  0
 30 43  1  0  0  0  0
 31 44  1  0  0  0  0
 31 45  1  0  0  0  0
 31 46  1  0  0  0  0
 32 47  1  0  0  0  0
 32 48  1  0  0  0  0
 32 49  1  0  0  0  0
M  END
$$$$
