
  Mrv1816 03192411253D              87.76000

 47 50  0  0  0  0            999 V2000
    8.3196    3.3951    4.4946 C   0  0  0  0  0  0  0  0  0  0  0  0
    8.9448    2.2508    5.0226 C   0  0  0  0  0  0  0  0  0  0  0  0
    8.4799    0.9718    4.6814 C   0  0  0  0  0  0  0  0  0  0  0  0
    7.3984    0.8406    3.7987 C   0  0  0  0  0  0  0  0  0  0  0  0
    6.7782    1.9877    3.2726 C   0  0  0  0  0  0  0  0  0  0  0  0
    7.2175    3.3058    3.5980 C   0  0  0  0  0  0  0  0  0  0  0  0
    6.6050    4.4574    3.0342 C   0  0  0  0  0  0  0  0  0  0  0  0
    7.0063    5.8236    3.4064 C   0  0  2  0  0  0  0  0  0  0  0  0
    6.7345    6.0480    4.8077 O   0  0  0  0  0  0  0  0  0  0  0  0
    7.1121    7.2934    5.2384 C   0  0  0  0  0  0  0  0  0  0  0  0
    8.4480    7.5439    5.6183 C   0  0  0  0  0  0  0  0  0  0  0  0
    6.1606    8.3327    5.3127 C   0  0  0  0  0  0  0  0  0  0  0  0
    6.5532    9.6232    5.7165 C   0  0  0  0  0  0  0  0  0  0  0  0
    7.8946    9.8765    6.0606 C   0  0  0  0  0  0  0  0  0  0  0  0
    8.8402    8.8350    6.0173 C   0  0  0  0  0  0  0  0  0  0  0  0
    5.6825    4.2550    2.1539 N   0  0  0  0  0  0  0  0  0  0  0  0
    5.0292    5.0718    1.4411 N   0  0  0  0  0  0  0  0  0  0  0  0
    3.9681    4.6935    0.7064 C   0  0  0  0  0  0  0  0  0  0  0  0
    1.9008    4.5570   -0.8355 C   0  0  0  0  0  0  0  0  0  0  0  0
    2.2033    3.4070   -0.0854 C   0  0  0  0  0  0  0  0  0  0  0  0
    3.3122    3.5092    0.7066 N   0  0  0  0  0  0  0  0  0  0  0  0
    3.1295    5.7348   -0.4270 S   0  0  0  0  0  0  0  0  0  0  0  0
    1.4106    2.2333   -0.1009 C   0  0  0  0  0  0  0  0  0  0  0  0
   -0.7912    1.1529   -0.0080 C   0  0  0  0  0  0  0  0  0  0  0  0
   -0.1825   -0.1165   -0.0240 C   0  0  0  0  0  0  0  0  0  0  0  0
    1.2210   -0.2132   -0.0959 C   0  0  0  0  0  0  0  0  0  0  0  0
    2.0119    0.9519   -0.1315 C   0  0  0  0  0  0  0  0  0  0  0  0
   -0.0030    2.3171   -0.0546 C   0  0  0  0  0  0  0  0  0  0  0  0
   -1.1314   -1.5170    0.0499 Cl  0  0  0  0  0  0  0  0  0  0  0  0
    8.6996    4.2981    4.7804 H   0  0  0  0  0  0  0  0  0  0  0  0
    9.7410    2.3484    5.6568 H   0  0  0  0  0  0  0  0  0  0  0  0
    8.9229    0.1401    5.0783 H   0  0  0  0  0  0  0  0  0  0  0  0
    7.0597   -0.0889    3.5373 H   0  0  0  0  0  0  0  0  0  0  0  0
    5.9928    1.8353    2.6356 H   0  0  0  0  0  0  0  0  0  0  0  0
    6.4759    6.5824    2.8280 H   0  0  0  0  0  0  0  0  0  0  0  0
    8.0698    5.9445    3.1790 H   0  0  0  0  0  0  0  0  0  0  0  0
    9.1371    6.7885    5.5976 H   0  0  0  0  0  0  0  0  0  0  0  0
    5.1835    8.1514    5.0687 H   0  0  0  0  0  0  0  0  0  0  0  0
    5.8636   10.3771    5.7583 H   0  0  0  0  0  0  0  0  0  0  0  0
    8.1807   10.8148    6.3486 H   0  0  0  0  0  0  0  0  0  0  0  0
    9.8133    9.0152    6.2743 H   0  0  0  0  0  0  0  0  0  0  0  0
    5.3023    6.0003    1.4013 H   0  0  0  0  0  0  0  0  0  0  0  0
    1.1310    4.6970   -1.4939 H   0  0  0  0  0  0  0  0  0  0  0  0
   -1.8087    1.2387    0.0466 H   0  0  0  0  0  0  0  0  0  0  0  0
    1.6752   -1.1302   -0.1177 H   0  0  0  0  0  0  0  0  0  0  0  0
    3.0302    0.8551   -0.1856 H   0  0  0  0  0  0  0  0  0  0  0  0
   -0.4730    3.2267   -0.0335 H   0  0  0  0  0  0  0  0  0  0  0  0
  1  2  1  0  0  0  0
  2  3  2  0  0  0  0
  3  4  1  0  0  0  0
  4  5  2  0  0  0  0
  5  6  1  0  0  0  0
  1  6  2  0  0  0  0
  6  7  1  0  0  0  0
  7  8  1  0  0  0  0
  8  9  1  0  0  0  0
  9 10  1  0  0  0  0
 12 13  1  0  0  0  0
 13 14  2  0  0  0  0
 14 15  1  0  0  0  0
 11 15  2  0  0  0  0
 11 10  1  0  0  0  0
 10 12  2  0  0  0  0
  7 16  2  0  0  0  0
 16 17  1  0  0  0  0
 17 18  1  0  0  0  0
 19 20  2  0  0  0  0
 20 21  1  0  0  0  0
 19 22  1  0  0  0  0
 21 18  2  0  0  0  0
 18 22  1  0  0  0  0
 20 23  1  0  0  0  0
 24 25  1  0  0  0  0
 25 26  2  0  0  0  0
 26 27  1  0  0  0  0
 24 28  2  0  0  0  0
 27 23  2  0  0  0  0
 23 28  1  0  0  0  0
 25 29  1  0  0  0  0
  1 30  1  0  0  0  0
  2 31  1  0  0  0  0
  3 32  1  0  0  0  0
  4 33  1  0  0  0  0
  5 34  1  0  0  0  0
  8 35  1  0  0  0  0
  8 36  1  0  0  0  0
 11 37  1  0  0  0  0
 12 38  1  0  0  0  0
 13 39  1  0  0  0  0
 14 40  1  0  0  0  0
 15 41  1  0  0  0  0
 17 42  1  0  0  0  0
 19 43  1  0  0  0  0
 24 44  1  0  0  0  0
 26 45  1  0  0  0  0
 27 46  1  0  0  0  0
 28 47  1  0  0  0  0
M  END
$$$$
