>N1.sdf
 OpenBabel10102213513D

118123  0  0  1  0  0  0  0  0999 V2000
    2.0493    2.2514    0.0575 O   0  0  0  0  0  0  0  0  0  0  0  0
    0.9103    3.1304   -0.0467 C   0  0  2  0  0  0  0  0  0  0  0  0
    0.9186    3.7550    1.3618 C   0  0  0  0  0  0  0  0  0  0  0  0
    2.4094    3.8814    1.6857 C   0  0  0  0  0  0  0  0  0  0  0  0
    3.1257    2.8246    0.8207 C   0  0  2  0  0  0  0  0  0  0  0  0
   -0.3958    2.3832   -0.4746 C   0  0  1  0  0  0  0  0  0  0  0  0
   -0.8306    1.5079    0.5810 O   0  0  0  0  0  0  0  0  0  0  0  0
   -2.2685    1.4693    0.7000 C   0  0  1  0  0  0  0  0  0  0  0  0
   -2.8046    0.5283   -0.2773 O   0  0  0  0  0  0  0  0  0  0  0  0
   -2.4179   -0.8642   -0.1977 C   0  0  1  0  0  0  0  0  0  0  0  0
   -2.7419   -1.4103    1.2212 C   0  0  0  0  0  0  0  0  0  0  0  0
   -2.2263   -0.4849    2.3662 C   0  0  2  0  0  0  0  0  0  0  0  0
   -2.7584    0.9706    2.1120 C   0  0  1  0  0  0  0  0  0  0  0  0
   -1.6068    3.2959   -0.7544 C   0  0  0  0  0  0  0  0  0  0  0  0
   -2.6233    2.9323    0.3296 C   0  0  1  0  0  0  0  0  0  0  0  0
    4.0784    3.5738   -0.1506 C   0  0  0  0  0  0  0  0  0  0  0  0
    3.8402    1.6577    1.5978 C   0  0  2  0  0  0  0  0  0  0  0  0
    2.9506    0.8776    2.4175 O   0  0  0  0  0  0  0  0  0  0  0  0
    3.7028    0.0472    3.3224 C   0  0  2  0  0  0  0  0  0  0  0  0
    5.0784    0.7228    3.4827 C   0  0  0  0  0  0  0  0  0  0  0  0
    5.0974    1.8827    2.4877 C   0  0  2  0  0  0  0  0  0  0  0  0
   -0.1799    1.6018   -1.7955 C   0  0  0  0  0  0  0  0  0  0  0  0
   -3.1713   -1.6422   -1.2883 C   0  0  0  0  0  0  0  0  0  0  0  0
   -2.8773   -1.2426   -2.7474 C   0  0  2  0  0  0  0  0  0  0  0  0
   -3.9953   -1.7092   -3.5543 O   0  0  0  0  0  0  0  0  0  0  0  0
   -3.9451   -1.6378   -5.0136 C   0  0  2  0  0  0  0  0  0  0  0  0
   -2.6782   -2.4728   -5.4380 C   0  0  2  0  0  0  0  0  0  0  0  0
   -1.4038   -1.8886   -4.7776 C   0  0  0  0  0  0  0  0  0  0  0  0
   -1.5444   -1.8758   -3.2355 C   0  0  0  0  0  0  0  0  0  0  0  0
   -0.7948   -0.6528    2.4190 O   0  0  0  0  0  0  0  0  0  0  0  0
   -0.1616   -0.2932    3.6531 C   0  0  0  0  0  0  0  0  0  0  0  0
   -2.6180    1.8956    3.3431 C   0  0  0  0  0  0  0  0  0  0  0  0
   -4.0576    3.2573   -0.1216 C   0  0  0  0  0  0  0  0  0  0  0  0
    3.7574   -1.4839    3.0017 C   0  0  1  0  0  0  0  0  0  0  0  0
    2.4438   -2.0512    3.2661 O   0  0  0  0  0  0  0  0  0  0  0  0
    1.9348   -3.1595    2.4827 C   0  0  1  0  0  0  0  0  0  0  0  0
    1.8905   -2.6636    0.9985 C   0  0  1  0  0  0  0  0  0  0  0  0
    3.2374   -2.0579    0.5159 C   0  0  0  0  0  0  0  0  0  0  0  0
    4.3405   -1.7889    1.5728 C   0  0  2  0  0  0  0  0  0  0  0  0
    5.2429    3.1574    3.3371 C   0  0  0  0  0  0  0  0  0  0  0  0
   -4.1586   -0.1566   -5.5064 C   0  0  2  0  0  0  0  0  0  0  0  0
   -5.3129    0.4795   -4.9059 C   0  0  0  0  0  0  0  0  0  0  0  0
   -5.1366    1.4625   -4.2008 O   0  0  0  0  0  0  0  0  0  0  0  0
   -2.4125   -2.7815   -6.9213 C   0  0  0  0  0  0  0  0  0  0  0  0
    2.7390   -4.3235    2.6766 O   0  0  0  0  0  0  0  0  0  0  0  0
    0.5559   -3.5509    3.0529 C   0  0  0  0  0  0  0  0  0  0  0  0
    0.5841   -3.8202    4.4503 O   0  0  0  0  0  0  0  0  0  0  0  0
    1.4718   -3.6538   -0.1046 C   0  0  0  0  0  0  0  0  0  0  0  0
    5.3567   -2.9467    1.4834 C   0  0  0  0  0  0  0  0  0  0  0  0
   -4.2112    0.0924   -7.0320 C   0  0  0  0  0  0  0  0  0  0  0  0
   -6.4654    0.0758   -5.0364 O   0  0  0  0  0  0  0  0  0  0  0  0
    4.3765   -1.9348    3.7873 H   0  0  0  0  0  0  0  0  0  0  0  0
    3.2173    0.1649    4.2947 H   0  0  0  0  0  0  0  0  0  0  0  0
    4.1745    0.9687    0.8117 H   0  0  0  0  0  0  0  0  0  0  0  0
    1.1304    3.9205   -0.7794 H   0  0  0  0  0  0  0  0  0  0  0  0
   -4.8158   -2.2211   -5.3305 H   0  0  0  0  0  0  0  0  0  0  0  0
    0.4364    4.7325    1.3576 H   0  0  0  0  0  0  0  0  0  0  0  0
    0.4289    3.0920    2.0751 H   0  0  0  0  0  0  0  0  0  0  0  0
    2.5845    3.6860    2.7437 H   0  0  0  0  0  0  0  0  0  0  0  0
    2.7644    4.8788    1.4266 H   0  0  0  0  0  0  0  0  0  0  0  0
   -1.3458   -0.9476   -0.3759 H   0  0  0  0  0  0  0  0  0  0  0  0
   -2.2758   -2.3896    1.3305 H   0  0  0  0  0  0  0  0  0  0  0  0
   -3.8219   -1.5215    1.3176 H   0  0  0  0  0  0  0  0  0  0  0  0
   -2.6458   -0.8413    3.3070 H   0  0  0  0  0  0  0  0  0  0  0  0
   -3.8346    0.8451    1.9929 H   0  0  0  0  0  0  0  0  0  0  0  0
   -1.3229    4.3456   -0.6788 H   0  0  0  0  0  0  0  0  0  0  0  0
   -2.0172    3.0861   -1.7422 H   0  0  0  0  0  0  0  0  0  0  0  0
   -2.4071    3.5511    1.2005 H   0  0  0  0  0  0  0  0  0  0  0  0
    5.2012    1.0947    4.4999 H   0  0  0  0  0  0  0  0  0  0  0  0
    5.8722    0.0144    3.2457 H   0  0  0  0  0  0  0  0  0  0  0  0
    5.9840    1.7839    1.8614 H   0  0  0  0  0  0  0  0  0  0  0  0
   -4.2386   -1.5036   -1.1160 H   0  0  0  0  0  0  0  0  0  0  0  0
   -2.9418   -2.7014   -1.1719 H   0  0  0  0  0  0  0  0  0  0  0  0
   -2.8089   -0.1570   -2.8180 H   0  0  0  0  0  0  0  0  0  0  0  0
   -2.8151   -3.4473   -4.9692 H   0  0  0  0  0  0  0  0  0  0  0  0
   -1.2527   -0.8688   -5.1316 H   0  0  0  0  0  0  0  0  0  0  0  0
   -0.5433   -2.4972   -5.0554 H   0  0  0  0  0  0  0  0  0  0  0  0
   -1.4966   -2.9033   -2.8749 H   0  0  0  0  0  0  0  0  0  0  0  0
   -0.7120   -1.3147   -2.8108 H   0  0  0  0  0  0  0  0  0  0  0  0
    1.1640   -1.8515    0.9704 H   0  0  0  0  0  0  0  0  0  0  0  0
    3.6555   -2.7450   -0.2198 H   0  0  0  0  0  0  0  0  0  0  0  0
    3.0202   -1.1168    0.0106 H   0  0  0  0  0  0  0  0  0  0  0  0
    4.8654   -0.8889    1.2524 H   0  0  0  0  0  0  0  0  0  0  0  0
   -3.2941    0.4012   -5.1464 H   0  0  0  0  0  0  0  0  0  0  0  0
   -0.1393   -2.7311    2.8720 H   0  0  0  0  0  0  0  0  0  0  0  0
    0.1978   -4.4380    2.5305 H   0  0  0  0  0  0  0  0  0  0  0  0
    2.7824   -4.5298    3.6132 H   0  0  0  0  0  0  0  0  0  0  0  0
    6.1501   -2.7917    2.2145 H   0  0  0  0  0  0  0  0  0  0  0  0
    4.8514   -3.8901    1.6905 H   0  0  0  0  0  0  0  0  0  0  0  0
    5.7861   -2.9767    0.4820 H   0  0  0  0  0  0  0  0  0  0  0  0
    0.6674    0.9253   -1.6837 H   0  0  0  0  0  0  0  0  0  0  0  0
    0.0207    2.3044   -2.6043 H   0  0  0  0  0  0  0  0  0  0  0  0
   -1.0760    1.0264   -2.0279 H   0  0  0  0  0  0  0  0  0  0  0  0
    0.5258   -4.1223    0.1670 H   0  0  0  0  0  0  0  0  0  0  0  0
    2.2386   -4.4207   -0.2142 H   0  0  0  0  0  0  0  0  0  0  0  0
    1.3551   -3.1194   -1.0474 H   0  0  0  0  0  0  0  0  0  0  0  0
   -0.2970   -4.0573    4.7488 H   0  0  0  0  0  0  0  0  0  0  0  0
    5.2633    4.0296    2.6837 H   0  0  0  0  0  0  0  0  0  0  0  0
    6.1703    3.1095    3.9078 H   0  0  0  0  0  0  0  0  0  0  0  0
    4.3985    3.2360    4.0219 H   0  0  0  0  0  0  0  0  0  0  0  0
    4.6008    2.8511   -0.7775 H   0  0  0  0  0  0  0  0  0  0  0  0
    3.4980    4.2481   -0.7803 H   0  0  0  0  0  0  0  0  0  0  0  0
    4.8048    4.1484    0.4241 H   0  0  0  0  0  0  0  0  0  0  0  0
   -4.7715    1.0056   -7.2325 H   0  0  0  0  0  0  0  0  0  0  0  0
   -3.1972    0.1964   -7.4181 H   0  0  0  0  0  0  0  0  0  0  0  0
   -4.7015   -0.7494   -7.5208 H   0  0  0  0  0  0  0  0  0  0  0  0
   -4.7576    2.9881    0.6693 H   0  0  0  0  0  0  0  0  0  0  0  0
   -4.1394    4.3238   -0.3314 H   0  0  0  0  0  0  0  0  0  0  0  0
   -4.2922    2.6907   -1.0228 H   0  0  0  0  0  0  0  0  0  0  0  0
    0.9123   -0.4618    3.5737 H   0  0  0  0  0  0  0  0  0  0  0  0
   -0.3492    0.7596    3.8642 H   0  0  0  0  0  0  0  0  0  0  0  0
   -0.5665   -0.9034    4.4605 H   0  0  0  0  0  0  0  0  0  0  0  0
   -3.3991    2.6554    3.3183 H   0  0  0  0  0  0  0  0  0  0  0  0
   -2.7149    1.3049    4.2540 H   0  0  0  0  0  0  0  0  0  0  0  0
   -1.6409    2.3783    3.3253 H   0  0  0  0  0  0  0  0  0  0  0  0
   -3.3149   -3.1914   -7.3749 H   0  0  0  0  0  0  0  0  0  0  0  0
   -2.1308   -1.8642   -7.4383 H   0  0  0  0  0  0  0  0  0  0  0  0
   -1.6033   -3.5073   -7.0021 H   0  0  0  0  0  0  0  0  0  0  0  0
  1  2  1  0  0  0  0
  1  5  1  0  0  0  0
  2  6  1  0  0  0  0
  2  3  1  0  0  0  0
  2 55  1  6  0  0  0
  3  4  1  0  0  0  0
  4  5  1  0  0  0  0
  5 17  1  0  0  0  0
  5 16  1  6  0  0  0
  6  7  1  0  0  0  0
  6 14  1  0  0  0  0
  6 22  1  6  0  0  0
  8  7  1  6  0  0  0
  8 13  1  0  0  0  0
  8  9  1  0  0  0  0
  8 15  1  0  0  0  0
  9 10  1  0  0  0  0
 10 23  1  0  0  0  0
 10 11  1  0  0  0  0
 10 61  1  6  0  0  0
 11 12  1  0  0  0  0
 12 13  1  0  0  0  0
 12 30  1  0  0  0  0
 12 64  1  1  0  0  0
 13 32  1  0  0  0  0
 13 65  1  6  0  0  0
 14 15  1  0  0  0  0
 15 33  1  0  0  0  0
 15 68  1  1  0  0  0
 17 18  1  0  0  0  0
 17 21  1  0  0  0  0
 17 54  1  6  0  0  0
 18 19  1  0  0  0  0
 19 20  1  0  0  0  0
 19 34  1  0  0  0  0
 19 53  1  1  0  0  0
 20 21  1  0  0  0  0
 21 40  1  0  0  0  0
 21 71  1  6  0  0  0
 24 23  1  0  0  0  0
 24 29  1  0  0  0  0
 24 25  1  0  0  0  0
 24 74  1  6  0  0  0
 25 26  1  0  0  0  0
 26 27  1  0  0  0  0
 26 41  1  0  0  0  0
 26 56  1  6  0  0  0
 27 28  1  0  0  0  0
 27 44  1  0  0  0  0
 27 75  1  1  0  0  0
 28 29  1  0  0  0  0
 30 31  1  0  0  0  0
 34 35  1  0  0  0  0
 34 39  1  0  0  0  0
 34 52  1  1  0  0  0
 35 36  1  0  0  0  0
 36 37  1  0  0  0  0
 36 46  1  1  0  0  0
 36 45  1  0  0  0  0
 37 38  1  0  0  0  0
 37 48  1  0  0  0  0
 37 80  1  6  0  0  0
 38 39  1  0  0  0  0
 39 49  1  0  0  0  0
 39 83  1  6  0  0  0
 41 50  1  0  0  0  0
 41 42  1  0  0  0  0
 41 84  1  1  0  0  0
 42 51  2  0  0  0  0
 42 43  2  0  0  0  0
 46 47  1  0  0  0  0
 57  3  1  0  0  0  0
 58  3  1  0  0  0  0
 59  4  1  0  0  0  0
 60  4  1  0  0  0  0
 62 11  1  0  0  0  0
 63 11  1  0  0  0  0
 66 14  1  0  0  0  0
 67 14  1  0  0  0  0
 69 20  1  0  0  0  0
 70 20  1  0  0  0  0
 72 23  1  0  0  0  0
 73 23  1  0  0  0  0
 76 28  1  0  0  0  0
 77 28  1  0  0  0  0
 78 29  1  0  0  0  0
 79 29  1  0  0  0  0
 81 38  1  0  0  0  0
 82 38  1  0  0  0  0
 85 46  1  0  0  0  0
 86 46  1  0  0  0  0
 87 45  1  0  0  0  0
 88 49  1  0  0  0  0
 89 49  1  0  0  0  0
 90 49  1  0  0  0  0
 91 22  1  0  0  0  0
 92 22  1  0  0  0  0
 93 22  1  0  0  0  0
 94 48  1  0  0  0  0
 95 48  1  0  0  0  0
 96 48  1  0  0  0  0
 97 47  1  0  0  0  0
 98 40  1  0  0  0  0
 99 40  1  0  0  0  0
100 40  1  0  0  0  0
101 16  1  0  0  0  0
102 16  1  0  0  0  0
103 16  1  0  0  0  0
104 50  1  0  0  0  0
105 50  1  0  0  0  0
106 50  1  0  0  0  0
107 33  1  0  0  0  0
108 33  1  0  0  0  0
109 33  1  0  0  0  0
110 31  1  0  0  0  0
111 31  1  0  0  0  0
112 31  1  0  0  0  0
113 32  1  0  0  0  0
114 32  1  0  0  0  0
115 32  1  0  0  0  0
116 44  1  0  0  0  0
117 44  1  0  0  0  0
118 44  1  0  0  0  0
M  END
$$$$
